powerfulcases/cases/matpower/case9241pegase/case9241pegase.raw
0, 100, 33, 0, 0, 60  / 28-Jan-2026 21:53:34 - MATPOWER 8.1


     1, 'BUS 1       ',       220, 1,    0,    6, 1,    1.007206,  -36.856998,  1.1,  0.9,  1.1,  0.9
     2, 'BUS 2       ',       154, 2,    0,    1, 1,    1.031734,  -12.028001,  1.1,  0.9,  1.1,  0.9
     3, 'BUS 3       ',       220, 1,    0,    5, 1,    1.017843,  -21.794234,  1.1,  0.9,  1.1,  0.9
     4, 'BUS 4       ',       220, 1,    0,    5, 1,    1.020147,   -7.224254,  1.1,  0.9,  1.1,  0.9
     5, 'BUS 5       ',       220, 1,    0,    6, 1,    0.989775,  -49.871783,  1.1,  0.9,  1.1,  0.9
     6, 'BUS 6       ',       380, 2,    0,    6, 1,    1.038476,  -42.240491,  1.1,  0.9,  1.1,  0.9
     7, 'BUS 7       ',       110, 1,    0,   21, 1,     0.96914,  -36.181195,  1.1,  0.9,  1.1,  0.9
     8, 'BUS 8       ',       154, 2,    0,    1, 1,    1.023005,  -20.771666,  1.1,  0.9,  1.1,  0.9
     9, 'BUS 9       ',       154, 1,    0,    1, 1,    1.032658,   -3.651312,  1.1,  0.9,  1.1,  0.9
    10, 'BUS 10      ',       220, 1,    0,    5, 1,    1.033477,  -24.645036,  1.1,  0.9,  1.1,  0.9
    11, 'BUS 11      ',       150, 1,    0,    9, 1,    0.965112,  -31.467815,  1.1,  0.9,  1.1,  0.9
    12, 'BUS 12      ',       150, 1,    0,    9, 1,    1.034508,  -26.383988,  1.1,  0.9,  1.1,  0.9
    13, 'BUS 13      ',       220, 1,    0,    6, 1,    1.013859,   -48.74904,  1.1,  0.9,  1.1,  0.9
    14, 'BUS 14      ',       380, 1,    0,    9, 1,     1.14146,  -21.558785,  1.3,  0.7,  1.3,  0.7
    15, 'BUS 15      ',       220, 1,    0,    4, 1,     1.02165,  -48.932223,  1.1,  0.9,  1.1,  0.9
    16, 'BUS 16      ',       154, 1,    0,    1, 1,    1.032431,    6.063256,  1.1,  0.9,  1.1,  0.9
    17, 'BUS 17      ',       220, 1,    0,    3, 1,    1.010381,    6.154063,  1.1,  0.9,  1.1,  0.9
    18, 'BUS 18      ',       380, 2,    0,    3, 1,    1.026728,   18.107815,  1.1,  0.9,  1.1,  0.9
    19, 'BUS 19      ',       110, 1,    0,   12, 1,    1.005109,  -38.460832,  1.1,  0.9,  1.1,  0.9
    20, 'BUS 20      ',       154, 1,    0,    1, 1,    1.024517,    6.675769,  1.1,  0.9,  1.1,  0.9
    21, 'BUS 21      ',       220, 1,    0,    5, 1,    1.031479,  -22.305911,  1.1,  0.9,  1.1,  0.9
    22, 'BUS 22      ',       220, 1,    0,    5, 1,    1.031644,  -18.751971,  1.1,  0.9,  1.1,  0.9
    23, 'BUS 23      ',       110, 1,    0,   19, 1,    1.024755,  -25.628654,  1.1,  0.9,  1.1,  0.9
    24, 'BUS 24      ',       110, 1,    0,   21, 1,    0.960802,  -32.296073,  1.1,  0.9,  1.1,  0.9
    25, 'BUS 25      ',       220, 2,    0,    3, 1,    1.028526,   12.404601,  1.1,  0.9,  1.1,  0.9
    26, 'BUS 26      ',       380, 1,    0,    5, 1,    1.029582,   -3.339851,  1.1,  0.9,  1.1,  0.9
    27, 'BUS 27      ',       380, 1,    0,   13, 1,    1.085434,   13.448823,  1.1,  0.9,  1.1,  0.9
    28, 'BUS 28      ',       150, 1,    0,    9, 1,    1.004931,  -31.840868,  1.1,  0.9,  1.1,  0.9
    29, 'BUS 29      ',       380, 1,    0,    5, 1,    1.004602,  -13.569928,  1.1,  0.9,  1.1,  0.9
    30, 'BUS 30      ',       150, 1,    0,    9, 1,    1.023518,  -29.715225,  1.1,  0.9,  1.1,  0.9
    31, 'BUS 31      ',       150, 1,    0,    9, 1,    0.905716,  -35.509144,  1.3,  0.7,  1.3,  0.7
    32, 'BUS 32      ',       220, 2,    0,    4, 1,    1.003223,  -43.014699,  1.1,  0.9,  1.1,  0.9
    33, 'BUS 33      ',       220, 2,    0,    4, 1,    1.026534,  -38.549418,  1.1,  0.9,  1.1,  0.9
    34, 'BUS 34      ',       110, 1,    0,   19, 1,    1.028523,  -24.559588,  1.1,  0.9,  1.1,  0.9
    35, 'BUS 35      ',       110, 1,    0,   12, 1,    1.026497,  -36.721451,  1.1,  0.9,  1.1,  0.9
    36, 'BUS 36      ',       220, 1,    0,   19, 1,    1.045193,  -21.272765,  1.1,  0.9,  1.1,  0.9
    37, 'BUS 37      ',       110, 1,    0,   18, 1,    0.972198,  -29.508765,  1.1,  0.9,  1.1,  0.9
    38, 'BUS 38      ',       220, 1,    0,    8, 1,    1.022868,   25.558732,  1.1,  0.9,  1.1,  0.9
    39, 'BUS 39      ',       150, 2,    0,   10, 1,    1.003511,  -38.297997,  1.1,  0.9,  1.1,  0.9
    40, 'BUS 40      ',       110, 1,    0,   23, 1,    0.999097,  -31.840826,  1.1,  0.9,  1.1,  0.9
    41, 'BUS 41      ',       154, 1,    0,    1, 1,    1.008625,   -8.828964,  1.1,  0.9,  1.1,  0.9
    42, 'BUS 42      ',       380, 1,    0,    4, 1,    1.042404,  -49.184531,  1.1,  0.9,  1.1,  0.9
    43, 'BUS 43      ',       154, 1,    0,    1, 1,    1.028739,  -15.907171,  1.1,  0.9,  1.1,  0.9
    44, 'BUS 44      ',       220, 1,    0,    5, 1,    1.040868,   -22.52467,  1.1,  0.9,  1.1,  0.9
    45, 'BUS 45      ',       110, 1,    0,   19, 1,    1.048003,  -25.286846,  1.1,  0.9,  1.1,  0.9
    46, 'BUS 46      ',       110, 1,    0,   18, 1,    0.958698,  -29.319698,  1.1,  0.9,  1.1,  0.9
    47, 'BUS 47      ',       110, 1,    0,   18, 1,    0.985859,  -27.824727,  1.1,  0.9,  1.1,  0.9
    48, 'BUS 48      ',       110, 1,    0,   15, 1,    1.045484,  -26.609146,  1.1,  0.9,  1.1,  0.9
    49, 'BUS 49      ',       220, 2,    0,    6, 1,    1.020323,  -36.088357,  1.1,  0.9,  1.1,  0.9
    50, 'BUS 50      ',       154, 1,    0,    1, 1,    1.025009,   -4.460831,  1.1,  0.9,  1.1,  0.9
    51, 'BUS 51      ',       220, 2,    0,    4, 1,    1.006665,  -48.120109,  1.1,  0.9,  1.1,  0.9
    52, 'BUS 52      ',       150, 1,    0,    8, 1,    1.017252,    0.511391,  1.1,  0.9,  1.1,  0.9
    53, 'BUS 53      ',       220, 1,    0,    5, 1,    1.053406,   -9.368997,  1.1,  0.9,  1.1,  0.9
    54, 'BUS 54      ',       220, 1,    0,    6, 1,    1.023883,  -35.660013,  1.1,  0.9,  1.1,  0.9
    55, 'BUS 55      ',       220, 1,    0,    3, 1,     0.99682,    9.004928,  1.1,  0.9,  1.1,  0.9
    56, 'BUS 56      ',       220, 1,    0,    3, 1,    1.010606,  -16.919749,  1.1,  0.9,  1.1,  0.9
    57, 'BUS 57      ',       154, 1,    0,    1, 1,    1.006533,   -9.693767,  1.1,  0.9,  1.1,  0.9
    58, 'BUS 58      ',       380, 1,    0,    5, 1,    1.027113,  -22.181789,  1.1,  0.9,  1.1,  0.9
    59, 'BUS 59      ',       220, 1,    0,    5, 1,    1.026698,  -24.169412,  1.1,  0.9,  1.1,  0.9
    60, 'BUS 60      ',       110, 1,    0,   18, 1,    1.024291,  -19.933148,  1.1,  0.9,  1.1,  0.9
    61, 'BUS 61      ',       380, 1,    0,    3, 1,    1.092743,   45.900184,  1.1,  0.9,  1.1,  0.9
    62, 'BUS 62      ',       110, 1,    0,   18, 1,    0.970166,  -27.705319,  1.1,  0.9,  1.1,  0.9
    63, 'BUS 63      ',       380, 1,    0,    3, 1,    1.020254,    5.462635,  1.1,  0.9,  1.1,  0.9
    64, 'BUS 64      ',       110, 1,    0,   15, 1,    1.058218,  -24.075639,  1.1,  0.9,  1.1,  0.9
    65, 'BUS 65      ',       150, 1,    0,    9, 1,    0.920443,  -33.979065,  1.1,  0.9,  1.1,  0.9
    66, 'BUS 66      ',       110, 1,    0,   19, 1,     1.07583,  -17.389672,  1.1,  0.9,  1.1,  0.9
    67, 'BUS 67      ',       380, 1,    0,   18, 1,    1.076797,  -22.668386,  1.1,  0.9,  1.1,  0.9
    68, 'BUS 68      ',       110, 1,    0,   18, 1,    0.932272,  -32.555245,  1.1,  0.9,  1.1,  0.9
    69, 'BUS 69      ',       150, 1,    0,    8, 1,    1.016399,   -0.749163,  1.1,  0.9,  1.1,  0.9
    70, 'BUS 70      ',       154, 1,    0,    1, 1,    1.021842,   -7.278252,  1.1,  0.9,  1.1,  0.9
    71, 'BUS 71      ',       150, 1,    0,    8, 1,    1.045653,    2.671707,  1.1,  0.9,  1.1,  0.9
    72, 'BUS 72      ',       220, 1,    0,    4, 1,    1.007342,  -41.162683,  1.1,  0.9,  1.1,  0.9
    73, 'BUS 73      ',       110, 1,    0,   12, 1,    1.011319,  -38.957605,  1.1,  0.9,  1.1,  0.9
    74, 'BUS 74      ',       150, 1,    0,    9, 1,    1.048486,   -29.24882,  1.1,  0.9,  1.1,  0.9
    75, 'BUS 75      ',       220, 1,    0,    4, 1,    1.019038,  -53.244715,  1.1,  0.9,  1.1,  0.9
    76, 'BUS 76      ',       220, 1,    0,    8, 1,    1.022914,   25.568654,  1.1,  0.9,  1.1,  0.9
    77, 'BUS 77      ',       220, 1,    0,    4, 1,    1.006664,  -49.599091,  1.1,  0.9,  1.1,  0.9
    78, 'BUS 78      ',       110, 1,    0,   18, 1,    0.981839,  -20.873081,  1.1,  0.9,  1.1,  0.9
    79, 'BUS 79      ',       380, 1,    0,    3, 1,    1.014386,   13.838092,  1.1,  0.9,  1.1,  0.9
    80, 'BUS 80      ',       220, 2,    0,   23, 1,    1.068393,  -26.943073,  1.1,  0.9,  1.1,  0.9
    81, 'BUS 81      ',       150, 1,    0,    1, 1,    1.010926,   61.408155,  1.1,  0.9,  1.1,  0.9
    82, 'BUS 82      ',       110, 1,    0,    1, 1,     1.03239,  -34.385172,  1.1,  0.9,  1.1,  0.9
    83, 'BUS 83      ',       220, 1,    0,    3, 1,    0.980327,   13.445474,  1.1,  0.9,  1.1,  0.9
    84, 'BUS 84      ',       110, 1,    0,   19, 1,    1.018715,  -30.235601,  1.1,  0.9,  1.1,  0.9
    85, 'BUS 85      ',       154, 1,    0,    1, 1,    1.022071,   16.413645,  1.1,  0.9,  1.1,  0.9
    86, 'BUS 86      ',       150, 1,    0,    9, 1,    1.051084,  -24.673587,  1.1,  0.9,  1.1,  0.9
    87, 'BUS 87      ',       110, 1,    0,   18, 1,     1.01789,  -15.037836,  1.1,  0.9,  1.1,  0.9
    88, 'BUS 88      ',       220, 1,    0,    6, 1,    1.006747,  -37.071358,  1.1,  0.9,  1.1,  0.9
    89, 'BUS 89      ',       380, 1,    0,    2, 1,    0.991009,   -5.004163,  1.1,  0.9,  1.1,  0.9
    90, 'BUS 90      ',       220, 1,    0,    5, 1,    1.042035,   -27.99494,  1.1,  0.9,  1.1,  0.9
    91, 'BUS 91      ',       150, 1,    0,    8, 1,    1.027005,     0.21051,  1.1,  0.9,  1.1,  0.9
    92, 'BUS 92      ',       380, 1,    0,    3, 1,    1.022158,    3.828439,  1.1,  0.9,  1.1,  0.9
    93, 'BUS 93      ',       110, 1,    0,   19, 1,    1.059099,  -21.280687,  1.1,  0.9,  1.1,  0.9
    94, 'BUS 94      ',       110, 1,    0,   19, 1,    1.007744,   -25.49367,  1.1,  0.9,  1.1,  0.9
    95, 'BUS 95      ',       150, 1,    0,    9, 1,    0.980011,  -30.352301,  1.1,  0.9,  1.1,  0.9
    96, 'BUS 96      ',       220, 1,    0,    5, 1,    1.036787,  -15.459067,  1.1,  0.9,  1.1,  0.9
    97, 'BUS 97      ',       380, 1,    0,    1, 1,    1.053303,    2.669719,  1.1,  0.9,  1.1,  0.9
    98, 'BUS 98      ',       220, 1,    0,    3, 1,    1.048113,   -2.631892,  1.1,  0.9,  1.1,  0.9
    99, 'BUS 99      ',       380, 1,    0,    6, 1,     1.02505,  -33.267073,  1.1,  0.9,  1.1,  0.9
   100, 'BUS 100     ',       150, 1,    0,    9, 1,    1.033873,  -29.927627,  1.1,  0.9,  1.1,  0.9
   101, 'BUS 101     ',       150, 1,    0,    9, 1,    0.964847,  -31.479281,  1.1,  0.9,  1.1,  0.9
   102, 'BUS 102     ',       220, 1,    0,    6, 1,    1.004007,  -50.623198,  1.1,  0.9,  1.1,  0.9
   103, 'BUS 103     ',       150, 1,    0,    9, 1,    0.992015,  -34.266143,  1.1,  0.9,  1.1,  0.9
   104, 'BUS 104     ',       220, 1,    0,    6, 1,    0.965443,  -55.943839,  1.1,  0.9,  1.1,  0.9
   105, 'BUS 105     ',       380, 1,    0,    6, 1,    1.036504,  -34.250878,  1.1,  0.9,  1.1,  0.9
   106, 'BUS 106     ',       380, 1,    0,   23, 1,    1.162506,  -22.492638,  1.3,  0.7,  1.3,  0.7
   107, 'BUS 107     ',       380, 2,    0,    3, 1,    1.083135,   41.615508,  1.3,  0.7,  1.3,  0.7
   108, 'BUS 108     ',       110, 1,    0,   18, 1,    1.005191,  -17.950996,  1.1,  0.9,  1.1,  0.9
   109, 'BUS 109     ',       154, 1,    0,    1, 1,    1.004858,  -11.902933,  1.1,  0.9,  1.1,  0.9
   110, 'BUS 110     ',       150, 1,    0,    9, 1,    0.994253,  -32.082481,  1.1,  0.9,  1.1,  0.9
   111, 'BUS 111     ',       220, 1,    0,   11, 1,    1.049848,  -22.296332,  1.1,  0.9,  1.1,  0.9
   112, 'BUS 112     ',       220, 1,    0,    3, 1,    1.030495,   -9.592049,  1.1,  0.9,  1.1,  0.9
   113, 'BUS 113     ',       380, 1,    0,    5, 1,    1.027407,  -14.491581,  1.1,  0.9,  1.1,  0.9
   114, 'BUS 114     ',       154, 1,    0,    1, 1,    1.026508,    9.781802,  1.1,  0.9,  1.1,  0.9
   115, 'BUS 115     ',       220, 1,    0,    5, 1,    1.062005,  -20.086677,  1.1,  0.9,  1.1,  0.9
   116, 'BUS 116     ',       110, 1,    0,   19, 1,    1.037818,  -21.171048,  1.1,  0.9,  1.1,  0.9
   117, 'BUS 117     ',       110, 1,    0,   18, 1,    1.002542,  -24.312333,  1.1,  0.9,  1.1,  0.9
   118, 'BUS 118     ',       380, 1,    0,    5, 1,    1.023863,  -11.320452,  1.1,  0.9,  1.1,  0.9
   119, 'BUS 119     ',       150, 1,    0,    9, 1,    1.066627,  -21.228028,  1.1,  0.9,  1.1,  0.9
   120, 'BUS 120     ',       154, 1,    0,    1, 1,    1.017689,  -24.512143,  1.1,  0.9,  1.1,  0.9
   121, 'BUS 121     ',       110, 1,    0,   15, 1,    1.061687,  -25.751773,  1.1,  0.9,  1.1,  0.9
   122, 'BUS 122     ',       220, 1,    0,    3, 1,    1.002609,    8.035022,  1.1,  0.9,  1.1,  0.9
   123, 'BUS 123     ',       220, 2,    0,   11, 1,    1.041503,  -19.868767,  1.1,  0.9,  1.1,  0.9
   124, 'BUS 124     ',       220, 2,    0,    5, 1,    1.077112,    8.310105,  1.1,  0.9,  1.1,  0.9
   125, 'BUS 125     ',       110, 1,    0,   18, 1,    1.022215,  -19.969192,  1.1,  0.9,  1.1,  0.9
   126, 'BUS 126     ',       154, 1,    0,    1, 1,    1.009839,    3.639019,  1.1,  0.9,  1.1,  0.9
   127, 'BUS 127     ',       220, 1,    0,    6, 1,    1.021779,  -28.832789,  1.1,  0.9,  1.1,  0.9
   128, 'BUS 128     ',       220, 1,    0,    5, 1,    1.015182,  -16.413952,  1.1,  0.9,  1.1,  0.9
   129, 'BUS 129     ',       220, 1,    0,    3, 1,    1.019572,  -12.355618,  1.1,  0.9,  1.1,  0.9
   130, 'BUS 130     ',       380, 1,    0,   10, 1,    1.057946,    -47.3148,  1.1,  0.9,  1.1,  0.9
   131, 'BUS 131     ',       110, 1,    0,   22, 1,     1.03239,  -40.262984,  1.1,  0.9,  1.1,  0.9
   132, 'BUS 132     ',       380, 1,    0,    1, 1,    1.062408,  -43.935749,  1.1,  0.9,  1.1,  0.9
   133, 'BUS 133     ',       150, 1,    0,    8, 1,    1.020783,     2.35489,  1.1,  0.9,  1.1,  0.9
   134, 'BUS 134     ',       400, 1,    0,    1, 1,    1.012932,    6.186446,  1.1,  0.9,  1.1,  0.9
   135, 'BUS 135     ',       220, 1,    0,    7, 1,    1.021481,  -22.444323,  1.1,  0.9,  1.1,  0.9
   136, 'BUS 136     ',       110, 1,    0,   12, 1,    1.006509,  -36.386405,  1.1,  0.9,  1.1,  0.9
   137, 'BUS 137     ',       150, 1,    0,    1, 1,    1.003064,   61.688917,  1.1,  0.9,  1.1,  0.9
   138, 'BUS 138     ',       380, 1,    0,   10, 1,    1.067481,  -41.992026,  1.1,  0.9,  1.1,  0.9
   139, 'BUS 139     ',       380, 1,    0,    8, 1,    1.013268,   16.764642,  1.1,  0.9,  1.1,  0.9
   140, 'BUS 140     ',       220, 1,    0,    8, 1,    1.027453,   17.039361,  1.1,  0.9,  1.1,  0.9
   141, 'BUS 141     ',       220, 2,    0,   13, 1,    1.050716,   -2.165585,  1.1,  0.9,  1.1,  0.9
   142, 'BUS 142     ',       220, 2,    0,    6, 1,    1.042299,  -30.404497,  1.1,  0.9,  1.1,  0.9
   143, 'BUS 143     ',       150, 1,    0,    8, 1,    1.022343,     3.87531,  1.1,  0.9,  1.1,  0.9
   144, 'BUS 144     ',       380, 1,    0,   14, 1,    1.063798,   18.932224,  1.1,  0.9,  1.1,  0.9
   145, 'BUS 145     ',       220, 1,    0,    5, 1,    1.038236,   -8.964288,  1.1,  0.9,  1.1,  0.9
   146, 'BUS 146     ',       120, 1,    0,   20, 1,    1.085135,  -25.638373,  1.3,  0.7,  1.3,  0.7
   147, 'BUS 147     ',       220, 2,    0,    7, 1,    1.058041,  -13.496004,  1.1,  0.9,  1.1,  0.9
   148, 'BUS 148     ',       220, 1,    0,    5, 1,    1.034625,   -8.217967,  1.1,  0.9,  1.1,  0.9
   149, 'BUS 149     ',       380, 1,    0,    6, 1,    1.021632,  -40.902503,  1.1,  0.9,  1.1,  0.9
   150, 'BUS 150     ',       220, 2,    0,    5, 1,    1.062129,    2.399597,  1.1,  0.9,  1.1,  0.9
   151, 'BUS 151     ',       154, 2,    0,    1, 1,    1.013748,  -24.076149,  1.1,  0.9,  1.1,  0.9
   152, 'BUS 152     ',       154, 1,    0,    1, 1,    1.050332,   -5.822456,  1.1,  0.9,  1.1,  0.9
   153, 'BUS 153     ',       150, 1,    0,    7, 1,    1.020345,  -28.197731,  1.1,  0.9,  1.1,  0.9
   154, 'BUS 154     ',       110, 1,    0,   12, 1,    1.016529,  -40.246021,  1.1,  0.9,  1.1,  0.9
   155, 'BUS 155     ',       110, 1,    0,   21, 1,    1.019829,   -29.30153,  1.1,  0.9,  1.1,  0.9
   156, 'BUS 156     ',       150, 1,    0,    9, 1,    0.953098,  -31.912298,  1.1,  0.9,  1.1,  0.9
   157, 'BUS 157     ',       110, 1,    0,   19, 1,     1.01451,  -13.069704,  1.1,  0.9,  1.1,  0.9
   158, 'BUS 158     ',       220, 1,    0,    3, 1,     1.01467,    6.148661,  1.1,  0.9,  1.1,  0.9
   159, 'BUS 159     ',       150, 1,    0,    9, 1,    1.021326,  -29.687582,  1.1,  0.9,  1.1,  0.9
   160, 'BUS 160     ',       154, 1,    0,    1, 1,    1.031014,    0.809761,  1.1,  0.9,  1.1,  0.9
   161, 'BUS 161     ',       150, 1,    0,    9, 1,    1.091016,   -27.88035,  1.1,  0.9,  1.1,  0.9
   162, 'BUS 162     ',       380, 1,    0,    6, 1,    1.052312,  -15.685671,  1.1,  0.9,  1.1,  0.9
   163, 'BUS 163     ',       220, 1,    0,    5, 1,    1.045445,  -10.873592,  1.1,  0.9,  1.1,  0.9
   164, 'BUS 164     ',       150, 1,    0,    8, 1,     1.02082,   -1.152459,  1.1,  0.9,  1.1,  0.9
   165, 'BUS 165     ',       380, 1,    0,    9, 1,    1.073155,  -24.141412,  1.1,  0.9,  1.1,  0.9
   166, 'BUS 166     ',       220, 2,    0,    3, 1,    1.040747,   11.781552,  1.1,  0.9,  1.1,  0.9
   167, 'BUS 167     ',       220, 1,    0,    3, 1,    1.031121,   -4.856472,  1.1,  0.9,  1.1,  0.9
   168, 'BUS 168     ',       154, 1,    0,    1, 1,    1.033177,   12.044899,  1.1,  0.9,  1.1,  0.9
   169, 'BUS 169     ',       150, 1,    0,    9, 1,    1.045543,  -29.415558,  1.1,  0.9,  1.1,  0.9
   170, 'BUS 170     ',       220, 1,    0,    1, 1,    1.011462,   34.762397,  1.1,  0.9,  1.1,  0.9
   171, 'BUS 171     ',       220, 1,    0,    5, 1,    1.061976,  -25.502124,  1.1,  0.9,  1.1,  0.9
   172, 'BUS 172     ',       220, 1,    0,    4, 1,    1.010114,  -47.141199,  1.1,  0.9,  1.1,  0.9
   173, 'BUS 173     ',       220, 1,    0,   13, 1,    1.054447,   14.634452,  1.1,  0.9,  1.1,  0.9
   174, 'BUS 174     ',       220, 1,    0,    5, 1,    1.071451,  -28.241418,  1.1,  0.9,  1.1,  0.9
   175, 'BUS 175     ',       110, 1,    0,   12, 1,    1.003654,   -41.36559,  1.1,  0.9,  1.1,  0.9
   176, 'BUS 176     ',       150, 1,    0,    9, 1,    1.040842,  -28.533618,  1.1,  0.9,  1.1,  0.9
   177, 'BUS 177     ',       220, 1,    0,   10, 1,    0.969767,  -43.357076,  1.1,  0.9,  1.1,  0.9
   178, 'BUS 178     ',       150, 1,    0,    9, 1,    1.013199,  -30.419221,  1.1,  0.9,  1.1,  0.9
   179, 'BUS 179     ',       380, 2,    0,    4, 1,    1.043661,  -50.052119,  1.1,  0.9,  1.1,  0.9
   180, 'BUS 180     ',       110, 1,    0,   21, 1,     1.02953,  -28.102331,  1.1,  0.9,  1.1,  0.9
   181, 'BUS 181     ',       110, 1,    0,   22, 1,    1.040515,  -39.643018,  1.1,  0.9,  1.1,  0.9
   182, 'BUS 182     ',       220, 1,    0,    3, 1,     1.03553,   39.324365,  1.1,  0.9,  1.1,  0.9
   183, 'BUS 183     ',       150, 1,    0,    9, 1,    1.031452,  -29.237157,  1.1,  0.9,  1.1,  0.9
   184, 'BUS 184     ',       220, 1,    0,    5, 1,    1.037524,  -12.250638,  1.1,  0.9,  1.1,  0.9
   185, 'BUS 185     ',       154, 1,    0,    1, 1,    1.007995,   -7.232267,  1.1,  0.9,  1.1,  0.9
   186, 'BUS 186     ',       110, 1,    0,   21, 1,    1.009472,  -30.519212,  1.1,  0.9,  1.1,  0.9
   187, 'BUS 187     ',       110, 1,    0,   22, 1,    1.002263,  -38.456187,  1.1,  0.9,  1.1,  0.9
   188, 'BUS 188     ',       220, 1,    0,    5, 1,    1.015193,  -19.834342,  1.1,  0.9,  1.1,  0.9
   189, 'BUS 189     ',       110, 1,    0,   18, 1,    1.001228,  -27.784349,  1.1,  0.9,  1.1,  0.9
   190, 'BUS 190     ',       110, 2,    0,   19, 1,    1.025544,   -21.44389,  1.1,  0.9,  1.1,  0.9
   191, 'BUS 191     ',       220, 1,    0,    6, 1,    1.016435,  -36.476155,  1.1,  0.9,  1.1,  0.9
   192, 'BUS 192     ',       380, 2,    0,    3, 1,    1.048355,   66.012239,  1.1,  0.9,  1.1,  0.9
   193, 'BUS 193     ',       220, 1,    0,    3, 1,    1.031896,   24.418857,  1.1,  0.9,  1.1,  0.9
   194, 'BUS 194     ',       150, 2,    0,    8, 1,     1.02931,   13.231568,  1.1,  0.9,  1.1,  0.9
   195, 'BUS 195     ',       220, 1,    0,    5, 1,    1.048915,   -9.187839,  1.1,  0.9,  1.1,  0.9
   196, 'BUS 196     ',       220, 1,    0,    5, 1,    1.069098,  -26.717314,  1.1,  0.9,  1.1,  0.9
   197, 'BUS 197     ',       380, 2,    0,    3, 1,    1.099985,   44.827022,  1.1,  0.9,  1.1,  0.9
   198, 'BUS 198     ',       220, 1,    0,    5, 1,    1.011257,  -16.658556,  1.1,  0.9,  1.1,  0.9
   199, 'BUS 199     ',       150, 1,    0,    8, 1,    1.017154,    0.540558,  1.1,  0.9,  1.1,  0.9
   200, 'BUS 200     ',       150, 1,    0,    1, 1,    1.010977,   61.566699,  1.1,  0.9,  1.1,  0.9
...
0 / END OF BUS DATA, BEGIN LOAD DATA
     1,  1, 1,    0,    6,     378.4,      98.5, 0, 0, 0, 0, 1, 1, 0
     3,  1, 1,    0,    5,       151,      48.8, 0, 0, 0, 0, 1, 1, 0
     4,  1, 1,    0,    5,    171.41,      23.4, 0, 0, 0, 0, 1, 1, 0
     5,  1, 1,    0,    6,     45.95,        14, 0, 0, 0, 0, 1, 1, 0
     7,  1, 1,    0,   21,     31.03,      10.3, 0, 0, 0, 0, 1, 1, 0
     9,  1, 1,    0,    1,      14.3,         2, 0, 0, 0, 0, 1, 1, 0
    10,  1, 1,    0,    5,       134,      24.7, 0, 0, 0, 0, 1, 1, 0
    12,  1, 1,    0,    9,     -6.11,         2, 0, 0, 0, 0, 1, 1, 0
    13,  1, 1,    0,    6,    -22.74,     -8.32, 0, 0, 0, 0, 1, 1, 0
    14,  1, 1,    0,    9,      13.5,      14.8, 0, 0, 0, 0, 1, 1, 0
    15,  1, 1,    0,    4,     59.67,      26.7, 0, 0, 0, 0, 1, 1, 0
    16,  1, 1,    0,    1,      30.6,       4.3, 0, 0, 0, 0, 1, 1, 0
    17,  1, 1,    0,    3,     67.68,      12.1, 0, 0, 0, 0, 1, 1, 0
    19,  1, 1,    0,   12,     25.33,       7.5, 0, 0, 0, 0, 1, 1, 0
    20,  1, 1,    0,    1,       1.4,       0.2, 0, 0, 0, 0, 1, 1, 0
    21,  1, 1,    0,    5,     161.2,      39.3, 0, 0, 0, 0, 1, 1, 0
    23,  1, 1,    0,   19,     19.62,       7.1, 0, 0, 0, 0, 1, 1, 0
    24,  1, 1,    0,   21,     17.22,       5.7, 0, 0, 0, 0, 1, 1, 0
    26,  1, 1,    0,    5,     167.3,      54.8, 0, 0, 0, 0, 1, 1, 0
    29,  1, 1,    0,    5,     152.9,      49.4, 0, 0, 0, 0, 1, 1, 0
    31,  1, 1,    0,    9,     69.68,      43.2, 0, 0, 0, 0, 1, 1, 0
    34,  1, 1,    0,   19,     13.52,       4.9, 0, 0, 0, 0, 1, 1, 0
    35,  1, 1,    0,   12,     10.51,       3.5, 0, 0, 0, 0, 1, 1, 0
    37,  1, 1,    0,   18,      9.21,       2.6, 0, 0, 0, 0, 1, 1, 0
    38,  1, 1,    0,    8,     42.75,      12.8, 0, 0, 0, 0, 1, 1, 0
    40,  1, 1,    0,   23,     16.02,      4.54, 0, 0, 0, 0, 1, 1, 0
    41,  1, 1,    0,    1,      27.9,         4, 0, 0, 0, 0, 1, 1, 0
    42,  1, 1,    0,    4,     20.82,       7.9, 0, 0, 0, 0, 1, 1, 0
    43,  1, 1,    0,    1,      12.6,       1.8, 0, 0, 0, 0, 1, 1, 0
    45,  1, 1,    0,   19,     10.11,       3.7, 0, 0, 0, 0, 1, 1, 0
    46,  1, 1,    0,   18,     10.01,       2.7, 0, 0, 0, 0, 1, 1, 0
    47,  1, 1,    0,   18,      6.31,         0, 0, 0, 0, 0, 1, 1, 0
    48,  1, 1,    0,   15,       2.9,       0.9, 0, 0, 0, 0, 1, 1, 0
    50,  1, 1,    0,    1,      48.8,       6.9, 0, 0, 0, 0, 1, 1, 0
    52,  1, 1,    0,    8,     127.6,      31.8, 0, 0, 0, 0, 1, 1, 0
    53,  1, 1,    0,    5,     48.65,      16.1, 0, 0, 0, 0, 1, 1, 0
    54,  1, 1,    0,    6,     110.5,     -26.8, 0, 0, 0, 0, 1, 1, 0
    56,  1, 1,    0,    3,       140,      79.7, 0, 0, 0, 0, 1, 1, 0
    57,  1, 1,    0,    1,      21.6,         3, 0, 0, 0, 0, 1, 1, 0
    59,  1, 1,    0,    5,     119.2,      20.7, 0, 0, 0, 0, 1, 1, 0
    60,  1, 1,    0,   18,      0.24,     -1.66, 0, 0, 0, 0, 1, 1, 0
    63,  1, 1,    0,    3,     187.9,     110.2, 0, 0, 0, 0, 1, 1, 0
    64,  1, 1,    0,   15,     14.92,       5.5, 0, 0, 0, 0, 1, 1, 0
    65,  1, 1,    0,    9,    -18.52,       6.1, 0, 0, 0, 0, 1, 1, 0
    66,  1, 1,    0,   19,      4.61,       1.7, 0, 0, 0, 0, 1, 1, 0
    68,  1, 1,    0,   18,     10.81,       5.1, 0, 0, 0, 0, 1, 1, 0
    69,  1, 1,    0,    8,     62.87,      20.5, 0, 0, 0, 0, 1, 1, 0
    71,  1, 1,    0,    8,     126.3,      42.4, 0, 0, 0, 0, 1, 1, 0
    72,  1, 1,    0,    4,      6.91,      -4.6, 0, 0, 0, 0, 1, 1, 0
    73,  1, 1,    0,   12,     15.72,       5.2, 0, 0, 0, 0, 1, 1, 0
    75,  1, 1,    0,    4,     38.74,       6.1, 0, 0, 0, 0, 1, 1, 0
    76,  1, 1,    0,    8,     22.13,      10.7, 0, 0, 0, 0, 1, 1, 0
    79,  1, 1,    0,    3,     138.8,     136.7, 0, 0, 0, 0, 1, 1, 0
    81,  1, 1,    0,    1,     67.76,     19.18, 0, 0, 0, 0, 1, 1, 0
    82,  1, 1,    0,    1,     22.02,       5.1, 0, 0, 0, 0, 1, 1, 0
    84,  1, 1,    0,   19,         1,       0.3, 0, 0, 0, 0, 1, 1, 0
    85,  1, 1,    0,    1,      20.9,         3, 0, 0, 0, 0, 1, 1, 0
    87,  1, 1,    0,   18,     21.52,       5.1, 0, 0, 0, 0, 1, 1, 0
    88,  1, 1,    0,    6,     71.98,      28.8, 0, 0, 0, 0, 1, 1, 0
    90,  1, 1,    0,    5,    363.25,    115.39, 0, 0, 0, 0, 1, 1, 0
    92,  1, 1,    0,    3,     192.9,      73.3, 0, 0, 0, 0, 1, 1, 0
    93,  1, 1,    0,   19,     17.52,       6.3, 0, 0, 0, 0, 1, 1, 0
    94,  1, 1,    0,   19,     33.14,        12, 0, 0, 0, 0, 1, 1, 0
    95,  1, 1,    0,    9,     40.45,        25, 0, 0, 0, 0, 1, 1, 0
    96,  1, 1,    0,    5,    193.17,     53.37, 0, 0, 0, 0, 1, 1, 0
    98,  1, 1,    0,    3,      90.7,      25.5, 0, 0, 0, 0, 1, 1, 0
    99,  1, 1,    0,    6,     176.3,     -58.9, 0, 0, 0, 0, 1, 1, 0
   100,  1, 1,    0,    9,     35.94,      22.3, 0, 0, 0, 0, 1, 1, 0
   103,  1, 1,    0,    9,     65.07,      40.3, 0, 0, 0, 0, 1, 1, 0
   104,  1, 1,    0,    6,     51.36,      -8.8, 0, 0, 0, 0, 1, 1, 0
   108,  1, 1,    0,   18,       3.8,       1.3, 0, 0, 0, 0, 1, 1, 0
   109,  1, 1,    0,    1,       137,      19.5, 0, 0, 0, 0, 1, 1, 0
   111,  1, 1,    0,   11,     61.07,        36, 0, 0, 0, 0, 1, 1, 0
   114,  1, 1,    0,    1,      55.7,       7.9, 0, 0, 0, 0, 1, 1, 0
   116,  1, 1,    0,   19,       1.8,       0.7, 0, 0, 0, 0, 1, 1, 0
   117,  1, 1,    0,   18,     40.04,        16, 0, 0, 0, 0, 1, 1, 0
   120,  1, 1,    0,    1,     140.6,      20.1, 0, 0, 0, 0, 1, 1, 0
   121,  1, 1,    0,   15,     45.15,      14.1, 0, 0, 0, 0, 1, 1, 0
   125,  1, 1,    0,   18,      3.42,      2.68, 0, 0, 0, 0, 1, 1, 0
   128,  1, 1,    0,    5,     23.73,      12.7, 0, 0, 0, 0, 1, 1, 0
   129,  1, 1,    0,    3,     121.9,       7.4, 0, 0, 0, 0, 1, 1, 0
   131,  1, 1,    0,   22,     47.35,      16.4, 0, 0, 0, 0, 1, 1, 0
   133,  1, 1,    0,    8,     38.14,      12.5, 0, 0, 0, 0, 1, 1, 0
   134,  1, 1,    0,    1,      54.2,       7.8, 0, 0, 0, 0, 1, 1, 0
   135,  1, 1,    0,    7,     130.6,      84.9, 0, 0, 0, 0, 1, 1, 0
   136,  1, 1,    0,   12,      7.91,       2.6, 0, 0, 0, 0, 1, 1, 0
   137,  1, 1,    0,    1,      42.1,     74.61, 0, 0, 0, 0, 1, 1, 0
   138,  1, 1,    0,   10,    -75.38,       7.8, 0, 0, 0, 0, 1, 1, 0
   145,  1, 1,    0,    5,     38.34,       5.6, 0, 0, 0, 0, 1, 1, 0
   146,  1, 1,    0,   20,     269.6,      65.7, 0, 0, 0, 0, 1, 1, 0
   148,  1, 1,    0,    5,     32.34,        12, 0, 0, 0, 0, 1, 1, 0
   149,  1, 1,    0,    6,     100.1,      45.1, 0, 0, 0, 0, 1, 1, 0
   152,  1, 1,    0,    1,         7,         1, 0, 0, 0, 0, 1, 1, 0
   156,  1, 1,    0,    9,     40.34,        25, 0, 0, 0, 0, 1, 1, 0
   157,  1, 1,    0,   19,      9.21,       3.3, 0, 0, 0, 0, 1, 1, 0
   158,  1, 1,    0,    3,       166,      60.3, 0, 0, 0, 0, 1, 1, 0
   160,  1, 1,    0,    1,      79.4,      11.3, 0, 0, 0, 0, 1, 1, 0
   163,  1, 1,    0,    5,    147.76,     32.73, 0, 0, 0, 0, 1, 1, 0
   165,  1, 1,    0,    9,      26.8,      -3.7, 0, 0, 0, 0, 1, 1, 0
   167,  1, 1,    0,    3,     257.5,     131.1, 0, 0, 0, 0, 1, 1, 0
   168,  1, 1,    0,    1,      16.7,       2.4, 0, 0, 0, 0, 1, 1, 0
   171,  1, 1,    0,    5,     100.8,      13.2, 0, 0, 0, 0, 1, 1, 0
   172,  1, 1,    0,    4,     111.7,     10.96, 0, 0, 0, 0, 1, 1, 0
   173,  1, 1,    0,   13,     90.38,     -5.05, 0, 0, 0, 0, 1, 1, 0
   174,  1, 1,    0,    5,     370.5,       -17, 0, 0, 0, 0, 1, 1, 0
   175,  1, 1,    0,   12,      9.91,       3.2, 0, 0, 0, 0, 1, 1, 0
   176,  1, 1,    0,    9,     -0.69,     -5.46, 0, 0, 0, 0, 1, 1, 0
   177,  1, 1,    0,   10,      94.9,      36.2, 0, 0, 0, 0, 1, 1, 0
   178,  1, 1,    0,    9,     81.09,        48, 0, 0, 0, 0, 1, 1, 0
   181,  1, 1,    0,   22,     54.96,      16.9, 0, 0, 0, 0, 1, 1, 0
   182,  1, 1,    0,    3,     19.32,        26, 0, 0, 0, 0, 1, 1, 0
   185,  1, 1,    0,    1,      20.9,         3, 0, 0, 0, 0, 1, 1, 0
   186,  1, 1,    0,   21,     19.92,       6.6, 0, 0, 0, 0, 1, 1, 0
   187,  1, 1,    0,   22,     57.16,         2, 0, 0, 0, 0, 1, 1, 0
   188,  1, 1,    0,    5,     36.84,      13.9, 0, 0, 0, 0, 1, 1, 0
   189,  1, 1,    0,   18,    -15.04,     -5.12, 0, 0, 0, 0, 1, 1, 0
   193,  1, 1,    0,    3,     119.9,       3.7, 0, 0, 0, 0, 1, 1, 0
   195,  1, 1,    0,    5,     73.14,     21.55, 0, 0, 0, 0, 1, 1, 0
   198,  1, 1,    0,    5,     39.74,      11.8, 0, 0, 0, 0, 1, 1, 0
   199,  1, 1,    0,    8,      86.8,      28.4, 0, 0, 0, 0, 1, 1, 0
   200,  1, 1,    0,    1,     22.42,       2.1, 0, 0, 0, 0, 1, 1, 0
   202,  1, 1,    0,   14,     110.9,      32.7, 0, 0, 0, 0, 1, 1, 0
   203,  1, 1,    0,    1,      18.2,       2.6, 0, 0, 0, 0, 1, 1, 0
   205,  1, 1,    0,    8,     46.15,      18.2, 0, 0, 0, 0, 1, 1, 0
   206,  1, 1,    0,   19,     34.04,      12.3, 0, 0, 0, 0, 1, 1, 0
   207,  1, 1,    0,    5,    321.98,      84.4, 0, 0, 0, 0, 1, 1, 0
   208,  1, 1,    0,    3,     33.44,        10, 0, 0, 0, 0, 1, 1, 0
   211,  1, 1,    0,    8,     75.28,      19.2, 0, 0, 0, 0, 1, 1, 0
   212,  1, 1,    0,   13,     95.69,     24.54, 0, 0, 0, 0, 1, 1, 0
   213,  1, 1,    0,    1,     37.34,      10.9, 0, 0, 0, 0, 1, 1, 0
   216,  1, 1,    0,    5,     155.6,      54.7, 0, 0, 0, 0, 1, 1, 0
   217,  1, 1,    0,    5,     105.2,       0.1, 0, 0, 0, 0, 1, 1, 0
   218,  1, 1,    0,    5,     69.83,     15.12, 0, 0, 0, 0, 1, 1, 0
   223,  1, 1,    0,   21,     27.03,       8.8, 0, 0, 0, 0, 1, 1, 0
   224,  1, 1,    0,   18,       2.6,       0.5, 0, 0, 0, 0, 1, 1, 0
   226,  1, 1,    0,   12,     14.62,       4.8, 0, 0, 0, 0, 1, 1, 0
   228,  1, 1,    0,    2,    -23.43,      57.4, 0, 0, 0, 0, 1, 1, 0
   229,  1, 1,    0,    6,     426.6,      93.7, 0, 0, 0, 0, 1, 1, 0
   230,  1, 1,    0,    4,    152.07,     22.52, 0, 0, 0, 0, 1, 1, 0
   231,  1, 1,    0,    8,     -0.13,        -1, 0, 0, 0, 0, 1, 1, 0
   233,  1, 1,    0,   18,       2.5,       3.8, 0, 0, 0, 0, 1, 1, 0
   234,  1, 1,    0,    1,      16.7,       2.4, 0, 0, 0, 0, 1, 1, 0
   235,  1, 1,    0,   22,     34.04,       4.4, 0, 0, 0, 0, 1, 1, 0
   236,  1, 1,    0,    4,     45.85,         7, 0, 0, 0, 0, 1, 1, 0
   242,  1, 1,    0,    3,     167.9,      18.2, 0, 0, 0, 0, 1, 1, 0
   245,  1, 1,    0,   21,     16.62,       5.5, 0, 0, 0, 0, 1, 1, 0
   251,  1, 1,    0,    1,     118.4,      16.9, 0, 0, 0, 0, 1, 1, 0
   257,  1, 1,    0,    4,     113.9,      24.5, 0, 0, 0, 0, 1, 1, 0
   258,  1, 1,    0,    1,        88,      12.6, 0, 0, 0, 0, 1, 1, 0
   259,  1, 1,    0,    9,     42.67,     12.11, 0, 0, 0, 0, 1, 1, 0
   260,  1, 1,    0,    3,     216.8,      40.5, 0, 0, 0, 0, 1, 1, 0
   264,  1, 1,    0,    4,     38.74,         9, 0, 0, 0, 0, 1, 1, 0
   265,  1, 1,    0,   11,     350.4,      29.3, 0, 0, 0, 0, 1, 1, 0
   267,  1, 1,    0,    4,     103.8,       2.7, 0, 0, 0, 0, 1, 1, 0
   268,  1, 1,    0,    8,     -0.13,        -1, 0, 0, 0, 0, 1, 1, 0
   271,  1, 1,    0,    2,      96.7,      26.8, 0, 0, 0, 0, 1, 1, 0
   274,  1, 1,    0,   21,     19.02,         6, 0, 0, 0, 0, 1, 1, 0
   275,  1, 1,    0,    8,     102.1,      25.3, 0, 0, 0, 0, 1, 1, 0
   279,  1, 1,    0,   19,      8.31,         3, 0, 0, 0, 0, 1, 1, 0
   280,  1, 1,    0,    5,     119.6,      29.6, 0, 0, 0, 0, 1, 1, 0
   283,  1, 1,    0,    5,     27.33,      11.9, 0, 0, 0, 0, 1, 1, 0
   284,  1, 1,    0,    4,     191.2,      -3.4, 0, 0, 0, 0, 1, 1, 0
   286,  1, 1,    0,    1,     101.6,      14.5, 0, 0, 0, 0, 1, 1, 0
   287,  1, 1,    0,   16,     177.1,      66.9, 0, 0, 0, 0, 1, 1, 0
   290,  1, 1,    0,   20,     53.46,      18.7, 0, 0, 0, 0, 1, 1, 0
   292,  1, 1,    0,    5,     13.82,       1.4, 0, 0, 0, 0, 1, 1, 0
   293,  1, 1,    0,    9,      85.1,        67, 0, 0, 0, 0, 1, 1, 0
   296,  1, 1,    0,    3,     189.3,      76.7, 0, 0, 0, 0, 1, 1, 0
   297,  1, 1,    0,    8,     23.73,       9.4, 0, 0, 0, 0, 1, 1, 0
   298,  1, 1,    0,   11,     10.01,       -21, 0, 0, 0, 0, 1, 1, 0
   301,  1, 1,    0,   18,    -14.85,     -4.95, 0, 0, 0, 0, 1, 1, 0
   302,  1, 1,    0,    1,      20.9,         3, 0, 0, 0, 0, 1, 1, 0
   303,  1, 1,    0,   21,     431.7,     121.6, 0, 0, 0, 0, 1, 1, 0
   304,  1, 1,    0,   10,       2.2,       0.5, 0, 0, 0, 0, 1, 1, 0
   305,  1, 1,    0,    5,       103,        12, 0, 0, 0, 0, 1, 1, 0
   311,  1, 1,    0,    8,     42.05,      17.2, 0, 0, 0, 0, 1, 1, 0
   312,  1, 1,    0,    8,     -0.16,     -2.91, 0, 0, 0, 0, 1, 1, 0
   314,  1, 1,    0,    5,     163.1,      46.3, 0, 0, 0, 0, 1, 1, 0
   319,  1, 1,    0,    1,     153.3,      21.8, 0, 0, 0, 0, 1, 1, 0
   321,  1, 1,    0,    3,     67.17,     -23.9, 0, 0, 0, 0, 1, 1, 0
   322,  1, 1,    0,   10,     303.8,      85.4, 0, 0, 0, 0, 1, 1, 0
   329,  1, 1,    0,   21,     24.23,       7.1, 0, 0, 0, 0, 1, 1, 0
   330,  1, 1,    0,    3,     108.6,       2.6, 0, 0, 0, 0, 1, 1, 0
   331,  1, 1,    0,    9,         4,       2.4, 0, 0, 0, 0, 1, 1, 0
   332,  1, 1,    0,   19,     30.03,      10.9, 0, 0, 0, 0, 1, 1, 0
   333,  1, 1,    0,    5,     524.5,        43, 0, 0, 0, 0, 1, 1, 0
   334,  1, 1,    0,    1,     129.9,      18.5, 0, 0, 0, 0, 1, 1, 0
   336,  1, 1,    0,   18,       4.4,         0, 0, 0, 0, 0, 1, 1, 0
   337,  1, 1,    0,   19,      9.22,       1.2, 0, 0, 0, 0, 1, 1, 0
   340,  1, 1,    0,   20,     186.6,      56.6, 0, 0, 0, 0, 1, 1, 0
   342,  1, 1,    0,    6,     35.41,      20.3, 0, 0, 0, 0, 1, 1, 0
   343,  1, 1,    0,   19,       3.2,       1.2, 0, 0, 0, 0, 1, 1, 0
   344,  1, 1,    0,    8,     372.8,     147.5, 0, 0, 0, 0, 1, 1, 0
   346,  1, 1,    0,    5,     197.5,      48.3, 0, 0, 0, 0, 1, 1, 0
   350,  1, 1,    0,    5,     110.4,      26.2, 0, 0, 0, 0, 1, 1, 0
   351,  1, 1,    0,    8,     -0.15,     -1.93, 0, 0, 0, 0, 1, 1, 0
   355,  1, 1,    0,   18,     -4.86,     -2.15, 0, 0, 0, 0, 1, 1, 0
   356,  1, 1,    0,    7,     141.1,       2.1, 0, 0, 0, 0, 1, 1, 0
   357,  1, 1,    0,    9,     52.96,      32.8, 0, 0, 0, 0, 1, 1, 0
   358,  1, 1,    0,    1,      13.9,       1.9, 0, 0, 0, 0, 1, 1, 0
...
0 / END OF LOAD DATA, BEGIN FIXED SHUNT DATA
     1, 1, 1,       0,   16.61
     3, 1, 1,       0,    4.69
     4, 1, 1,       0,     2.1
     5, 1, 1,       0,   13.34
     7, 1, 1,       0,    0.65
     9, 1, 1,       0,    1.91
    10, 1, 1,       0,   12.44
    12, 1, 1,       0,    0.47
    13, 1, 1,       0,     6.5
    14, 1, 1,       0, 132.435
    15, 1, 1,       0,   12.84
    16, 1, 1,       0,    5.15
    17, 1, 1,       0,    2.18
    19, 1, 1,       0,    2.39
    20, 1, 1,       0,    4.93
    21, 1, 1,       0,   30.71
    22, 1, 1,       0,    0.85
    23, 1, 1,       0,    1.15
    24, 1, 1,       0,    1.22
    26, 1, 1,       0,  110.54
    27, 1, 1,       0,   14.82
    29, 1, 1,       0,   27.65
    30, 1, 1,       0,    0.56
    31, 1, 1,       0,     6.3
    34, 1, 1,       0,     1.8
    35, 1, 1,       0,    0.31
    36, 1, 1,    0.12,   15.34
    37, 1, 1,       0,       2
    38, 1, 1,       0,    13.3
    40, 1, 1,       0,     0.1
    41, 1, 1,       0,    4.23
    42, 1, 1,       0,   26.89
    43, 1, 1,       0,    2.03
    44, 1, 1,       0,    7.27
    45, 1, 1,       0,    0.81
    46, 1, 1,       0,    1.14
    47, 1, 1,       0,    0.67
    48, 1, 1,       0,     0.6
    50, 1, 1,       0,    8.71
    52, 1, 1,       0,   20.51
    53, 1, 1,       0,    7.14
    54, 1, 1,       0,   16.37
    55, 1, 1,       0,    1.23
    56, 1, 1,       0,     6.5
    57, 1, 1,       0,    3.54
    58, 1, 1,       0,    2.31
    59, 1, 1,       0,    3.31
    60, 1, 1,       0,    0.65
    61, 1, 1,       0,   58.57
    62, 1, 1,       0,    1.34
    63, 1, 1,       0,   21.25
    64, 1, 1,       0,    1.31
    65, 1, 1,       0,    0.79
    66, 1, 1,       0,    2.32
    67, 1, 1, 0.099501, 82.1336
    68, 1, 1,       0,    1.09
    69, 1, 1,       0,    1.15
    70, 1, 1,       0,    2.64
    71, 1, 1,       0,   55.24
    72, 1, 1,       0,    5.75
    73, 1, 1,       0,    0.11
    75, 1, 1,       0,    1.17
    76, 1, 1,       0,   14.21
    77, 1, 1,       0,    0.73
    78, 1, 1,       0,    0.83
    79, 1, 1,       0,    8.76
    81, 1, 1,       0,    1.47
    82, 1, 1,       0,    0.69
    83, 1, 1,       0,    6.62
    84, 1, 1,       0,    0.19
    85, 1, 1,       0,    5.74
    86, 1, 1,       0,    0.12
    87, 1, 1,       0,     0.5
    88, 1, 1,       0,      11
    89, 1, 1, 0.199111,  4.5306
    90, 1, 1,       0,    3.95
    91, 1, 1,       0,    0.02
    92, 1, 1,       0,   20.75
    93, 1, 1,       0,    0.26
    94, 1, 1,       0,    0.65
    95, 1, 1,       0,    9.82
    96, 1, 1,       0,    4.58
    97, 1, 1,       0,    9.38
    98, 1, 1,       0,    3.11
    99, 1, 1,       0,   24.77
   101, 1, 1,       0,    0.29
   102, 1, 1,       0,    3.77
   103, 1, 1,       0,    5.43
   104, 1, 1,       0,    2.15
   105, 1, 1,       0,   82.55
   106, 1, 1,       0,   31.19
   108, 1, 1,       0,     0.4
   109, 1, 1,       0,     4.9
   111, 1, 1,       0,    3.09
   112, 1, 1,       0,    3.24
   113, 1, 1,       0, 6.53271
   114, 1, 1,       0,    4.21
   115, 1, 1,       0,    4.21
   116, 1, 1,       0,     0.3
   117, 1, 1,       0,    0.52
   118, 1, 1,       0, 36.5628
   119, 1, 1,       0,    0.09
   120, 1, 1,       0,   13.81
   121, 1, 1,       0,    0.19
   122, 1, 1,       0,    5.75
   125, 1, 1,       0,    1.46
   126, 1, 1,       0,    2.64
   127, 1, 1,       0,     4.3
   128, 1, 1,       0,    0.52
   129, 1, 1,       0,    1.34
   130, 1, 1, 0.135375, 47.7507
   131, 1, 1,       0,    4.08
   132, 1, 1,       0,   21.39
   133, 1, 1,       0,    6.28
   134, 1, 1,       0,    94.9
   135, 1, 1,       0,    4.22
   136, 1, 1,       0,    0.74
   137, 1, 1,       0,   37.58
   138, 1, 1,       0,    29.9
   139, 1, 1,       0,   36.92
   140, 1, 1,       0,    4.14
   144, 1, 1,       0,   98.53
   145, 1, 1,       0,    7.64
   148, 1, 1,       0,     6.1
   149, 1, 1,       0,    1.11
   152, 1, 1,       0,    4.69
   153, 1, 1,       0,    0.56
   154, 1, 1,       0,    1.29
   155, 1, 1,       0,     1.7
   156, 1, 1,       0,    1.14
   157, 1, 1,       0,     1.2
   158, 1, 1,       0,    0.57
   159, 1, 1,       0,     0.1
   160, 1, 1,       0,    4.92
   161, 1, 1,       0,    0.16
   162, 1, 1,       0,   66.65
   163, 1, 1,       0,    8.34
   164, 1, 1,       0,    5.17
   165, 1, 1,       0, 51.2617
   167, 1, 1,       0,    1.08
   168, 1, 1,       0,    6.09
   169, 1, 1,       0,    1.91
   170, 1, 1,       0,    2.35
   171, 1, 1,       0,    5.24
   172, 1, 1,       0,    4.22
   173, 1, 1,       0,    8.49
   174, 1, 1,       0,    9.91
   175, 1, 1,       0,    0.67
   176, 1, 1,       0,    5.07
   177, 1, 1,       0,   16.46
   178, 1, 1,       0,    0.03
   180, 1, 1,       0,    0.54
   181, 1, 1,       0,    3.37
   182, 1, 1,       0,    0.69
   183, 1, 1,       0,    1.83
   184, 1, 1,       0,    2.42
   185, 1, 1,       0,    4.11
   186, 1, 1,       0,    0.56
   187, 1, 1,       0,    1.48
   188, 1, 1,       0,     3.3
   189, 1, 1,       0,    0.43
   191, 1, 1,       0,   14.19
   193, 1, 1,       0,    3.33
   195, 1, 1,       0,    8.52
   196, 1, 1,       0,   12.48
   198, 1, 1,       0,    1.44
   199, 1, 1,       0,    1.34
   200, 1, 1,       0,    0.19
   202, 1, 1,       0,    15.4
   203, 1, 1,       0,   12.38
   204, 1, 1, 0.181549, 14.6909
   205, 1, 1,       0,    1.29
   206, 1, 1,       0,    0.23
   207, 1, 1,       0,    1.34
   208, 1, 1,       0,    1.36
   211, 1, 1,       0,     1.9
   212, 1, 1,       0,    2.85
   213, 1, 1,       0,    0.63
   215, 1, 1,       0,    4.93
   216, 1, 1,       0,    2.21
   217, 1, 1,       0,    7.36
   218, 1, 1,       0,    2.23
   223, 1, 1,       0,    1.84
   224, 1, 1,       0,    0.14
   225, 1, 1,       0,    1.15
   226, 1, 1,       0,    1.02
   227, 1, 1,       0,    2.55
   229, 1, 1,       0,   80.94
   230, 1, 1,       0,    7.87
   232, 1, 1,       0,     0.7
   233, 1, 1,       0,    0.15
   234, 1, 1,       0,    0.87
   235, 1, 1,       0,    1.25
   236, 1, 1,       0,    1.05
   237, 1, 1,       0,   30.97
   238, 1, 1,       0,   19.36
   241, 1, 1,       0,    3.95
   242, 1, 1,       0,    5.97
   243, 1, 1,       0,   13.49
   244, 1, 1,       0,    0.68
...
0 / END OF FIXED SHUNT DATA, BEGIN GENERATOR DATA
     2,  1,     -81.4,      6.64,     42.19,    -20.45, 1.031734, 0,     100, 0, 1, 0, 0, 1, 1, 100,       100,   -108.53, 1, 1, 0, 1, 0, 1, 0, 1, 0, 1
     6,  1,       701,    183.79,    524.53,   -211.57, 1.038476, 0,     100, 0, 1, 0, 0, 1, 1, 100,      1200,       400, 1, 1, 0, 1, 0, 1, 0, 1, 0, 1
     8,  1,     499.7,     -0.95,    251.73,   -246.25, 1.023005, 0,     100, 0, 1, 0, 0, 1, 1, 100,    524.68,         0, 1, 1, 0, 1, 0, 1, 0, 1, 0, 1
    18,  1,     467.5,    201.91,    212.97,    -93.48, 1.026728, 0,     100, 0, 1, 0, 0, 1, 1, 100,       500,    166.67, 1, 1, 0, 1, 0, 1, 0, 1, 0, 1
    25,  1,     319.6,    164.04,    179.43,    -66.21, 1.028526, 0,     100, 0, 1, 0, 0, 1, 1, 100,       400,         0, 1, 1, 0, 1, 0, 1, 0, 1, 0, 1
    32,  1,         8,     -1.02,      5.91,     -4.56, 1.003223, 0,     100, 0, 1, 0, 0, 1, 1, 100,      16.2,         0, 1, 1, 0, 1, 0, 1, 0, 1, 0, 1
    33,  1,       5.3,     -0.56,      2.27,     -1.08, 1.026534, 0,     100, 0, 1, 0, 0, 1, 1, 100,      5.38,         0, 1, 1, 0, 1, 0, 1, 0, 1, 0, 1
    39,  1,      34.3,      4.77,     17.76,     -7.14, 1.003511, 0,     100, 0, 1, 0, 0, 1, 1, 100,        40,         0, 1, 1, 0, 1, 0, 1, 0, 1, 0, 1
    49,  1,     309.2,     62.33,    218.52,    -75.97, 1.020323, 0,     100, 0, 1, 0, 0, 1, 1, 100,       480,         0, 1, 1, 0, 1, 0, 1, 0, 1, 0, 1
    51,  1,    -144.5,     -0.31,      5.48,     -4.19, 1.006665, 0,     100, 0, 1, 0, 0, 1, 1, 100,       100,   -192.67, 1, 1, 0, 1, 0, 1, 0, 1, 0, 1
    80,  1,      43.2,      2.23,    139.94,    -43.78, 1.068393, 0,     100, 0, 1, 0, 0, 1, 1, 100,       100,      28.8, 1, 1, 0, 1, 0, 1, 0, 1, 0, 1
   107,  1,       570,    -75.96,    253.85,   -113.79, 1.083135, 0,     100, 0, 1, 0, 0, 1, 1, 100,       600,       200, 1, 1, 0, 1, 0, 1, 0, 1, 0, 1
   123,  1,      24.9,      8.45,     18.84,     -6.06, 1.041503, 0,     100, 0, 1, 0, 0, 1, 1, 100,        40,         0, 1, 1, 0, 1, 0, 1, 0, 1, 0, 1
   124,  1,     861.3,     69.97,    440.32,   -172.59, 1.077112, 0,     100, 0, 1, 0, 0, 1, 1, 100,      1000,    333.33, 1, 1, 0, 1, 0, 1, 0, 1, 0, 1
   141,  1,     -73.2,      5.11,     18.59,     -6.33, 1.050716, 0,     100, 0, 1, 0, 0, 1, 1, 100,       100,     -97.6, 1, 1, 0, 1, 0, 1, 0, 1, 0, 1
   142,  1,     158.7,       2.2,     78.15,     -32.4, 1.042299, 0,     100, 0, 1, 0, 0, 1, 1, 100,       180,         0, 1, 1, 0, 1, 0, 1, 0, 1, 0, 1
   147,  1,       -16,      9.74,     70.12,     -29.5, 1.058041, 0,     100, 0, 1, 0, 0, 1, 1, 100,       100,    -21.33, 1, 1, 0, 1, 0, 1, 0, 1, 0, 1
   150,  1,     67.29,     -5.08,     77.09,    -22.54, 1.062129, 0,     100, 0, 1, 0, 0, 1, 1, 100,       160,         0, 1, 1, 0, 1, 0, 1, 0, 1, 0, 1
   151,  1,   -110.35,    -11.36,     37.97,    -58.18, 1.013748, 0,     100, 0, 1, 0, 0, 1, 1, 100,       100,   -147.13, 1, 1, 0, 1, 0, 1, 0, 1, 0, 1
   166,  1,     292.2,    107.13,    127.67,    -56.53, 1.040747, 0,     100, 0, 1, 0, 0, 1, 1, 100,       300,         0, 1, 1, 0, 1, 0, 1, 0, 1, 0, 1
   179,  1,    -179.2,    -30.19,     52.64,    -51.72, 1.043661, 0,     100, 0, 1, 0, 0, 1, 1, 100,       100,   -238.93, 1, 1, 0, 1, 0, 1, 0, 1, 0, 1
   190,  1,     90.69,        31,     54.24,    -20.63, 1.025544, 0,     100, 0, 1, 0, 0, 1, 1, 100,       120,         0, 1, 1, 0, 1, 0, 1, 0, 1, 0, 1
   192,  1,     135.8,     12.15,     91.61,    -30.98, 1.048355, 0,     100, 0, 1, 0, 0, 1, 1, 100,       200,         0, 1, 1, 0, 1, 0, 1, 0, 1, 0, 1
   194,  1,     268.6,      42.2,    130.19,    -53.53,  1.02931, 0,     100, 0, 1, 0, 0, 1, 1, 100,       300,       100, 1, 1, 0, 1, 0, 1, 0, 1, 0, 1
   197,  1,     292.2,    -57.05,    123.89,    -59.54, 1.099985, 0,     100, 0, 1, 0, 0, 1, 1, 100,       300,         0, 1, 1, 0, 1, 0, 1, 0, 1, 0, 1
   201,  1,       5.2,      -0.6,      2.27,     -1.07,  1.01914, 0,     100, 0, 1, 0, 0, 1, 1, 100,      5.37,         0, 1, 1, 0, 1, 0, 1, 0, 1, 0, 1
   209,  1,      25.4,      9.44,      18.7,     -6.17, 1.026832, 0,     100, 0, 1, 0, 0, 1, 1, 100,        40,         0, 1, 1, 0, 1, 0, 1, 0, 1, 0, 1
   214,  1,    -175.2,      1.82,       192,    -52.89, 1.079765, 0,     100, 0, 1, 0, 0, 1, 1, 100,       100,    -233.6, 1, 1, 0, 1, 0, 1, 0, 1, 0, 1
   219,  1,      1171,    704.29,    937.43,   -288.16, 1.056623, 0,     100, 0, 1, 0, 0, 1, 1, 100,      2000,    666.67, 1, 1, 0, 1, 0, 1, 0, 1, 0, 1
   220,  1,     668.7,   -115.27,    402.92,   -146.95, 1.047116, 0,     100, 0, 1, 0, 0, 1, 1, 100,       900,       300, 1, 1, 0, 1, 0, 1, 0, 1, 0, 1
   221,  1,       296,     43.03,    183.92,     -65.3, 1.030636, 0,     100, 0, 1, 0, 0, 1, 1, 100,       400,    133.33, 1, 1, 0, 1, 0, 1, 0, 1, 0, 1
   222,  1,    -147.3,      2.36,     12.51,     -5.62, 1.030494, 0,     100, 0, 1, 0, 0, 1, 1, 100,       100,    -196.4, 1, 1, 0, 1, 0, 1, 0, 1, 0, 1
   239,  1,     -7.05,      7.21,     38.52,    -11.24, 1.018711, 0,     100, 0, 1, 0, 0, 1, 1, 100,       100,      -9.4, 1, 1, 0, 1, 0, 1, 0, 1, 0, 1
   246,  1,     307.1,    -22.47,    378.08,   -112.59,  1.06685, 0,     100, 0, 1, 0, 0, 1, 1, 100,       800,    266.67, 1, 1, 0, 1, 0, 1, 0, 1, 0, 1
   248,  1,      -172,     11.84,     37.47,    -12.35, 1.043991, 0,     100, 0, 1, 0, 0, 1, 1, 100,       100,   -229.33, 1, 1, 0, 1, 0, 1, 0, 1, 0, 1
   255,  1,     423.2,    -30.86,    220.66,    -85.89, 1.059597, 0,     100, 0, 1, 0, 0, 1, 1, 100,       500,    166.67, 1, 1, 0, 1, 0, 1, 0, 1, 0, 1
   262,  1,    -115.4,     12.33,      38.1,    -11.72, 1.033795, 0,     100, 0, 1, 0, 0, 1, 1, 100,       100,   -153.87, 1, 1, 0, 1, 0, 1, 0, 1, 0, 1
   263,  1,     -34.4,     -3.16,      5.05,     -6.95, 1.028681, 0,     100, 0, 1, 0, 0, 1, 1, 100,       100,    -45.87, 1, 1, 0, 1, 0, 1, 0, 1, 0, 1
   278,  1,     -64.1,      7.04,      37.7,    -12.09, 1.014153, 0,     100, 0, 1, 0, 0, 1, 1, 100,       100,    -85.47, 1, 1, 0, 1, 0, 1, 0, 1, 0, 1
   282,  1,    1245.7,   -279.39,    924.64,   -300.35, 1.077605, 0,     100, 0, 1, 0, 0, 1, 1, 100,      2000,    666.67, 1, 1, 0, 1, 0, 1, 0, 1, 0, 1
   289,  1,      52.7,     -3.66,     26.02,    -10.81, 1.046783, 0,     100, 0, 1, 0, 0, 1, 1, 100,        60,         0, 1, 1, 0, 1, 0, 1, 0, 1, 0, 1
   294,  1,       250,     10.09,      45.1,    -21.32, 1.003375, 0,     100, 0, 1, 0, 0, 1, 1, 100,       480,       160, 1, 1, 0, 1, 0, 1, 0, 1, 0, 1
   299,  1,     975.9,     97.97,    721.25,   -258.71, 1.039248, 0,     100, 0, 1, 0, 0, 1, 1, 100,      1600,    533.33, 1, 1, 0, 1, 0, 1, 0, 1, 0, 1
   309,  1,      95.1,     36.53,     42.62,    -18.72, 0.989085, 0,     100, 0, 1, 0, 0, 1, 1, 100,       100,         0, 1, 1, 0, 1, 0, 1, 0, 1, 0, 1
   310,  1,    346.18,    632.57,       Inf,      -Inf, 1.155322, 0,     100, 0, 1, 0, 0, 1, 1, 100,       700,       200, 1, 1, 0, 1, 0, 1, 0, 1, 0, 1
   313,  1,       9.6,     -1.71,      4.83,     -7.17, 1.025259, 0,     100, 0, 1, 0, 0, 1, 1, 100,     10.08,         0, 1, 1, 0, 1, 0, 1, 0, 1, 0, 1
   320,  1,      1760,   -355.74,    320.04,   -843.96, 1.013336, 0,     100, 0, 1, 0, 0, 1, 1, 100,      1812,       604, 1, 1, 0, 1, 0, 1, 0, 1, 0, 1
   324,  1,        94,     30.47,     95.32,    -27.29, 1.063285, 0,     100, 0, 1, 0, 0, 1, 1, 100,       200,         0, 1, 1, 0, 1, 0, 1, 0, 1, 0, 1
   325,  1,     -21.4,      0.06,      1.93,     -1.01, 1.009625, 0,     100, 0, 1, 0, 0, 1, 1, 100,       100,    -28.53, 1, 1, 0, 1, 0, 1, 0, 1, 0, 1
   328,  1,     -77.9,      0.12,    188.91,    -56.14, 1.017618, 0,     100, 0, 1, 0, 0, 1, 1, 100,       100,   -103.87, 1, 1, 0, 1, 0, 1, 0, 1, 0, 1
   338,  1,      83.7,      3.24,     55.54,    -19.16, 1.046957, 0,     100, 0, 1, 0, 0, 1, 1, 100,       120,         0, 1, 1, 0, 1, 0, 1, 0, 1, 0, 1
   347,  1,      50.8,    -13.47,     33.33,    -42.67, 1.020949, 0,     100, 0, 1, 0, 0, 1, 1, 100,     53.42,         0, 1, 1, 0, 1, 0, 1, 0, 1, 0, 1
   348,  1,     160.4,      3.38,    110.57,     -36.9, 1.057894, 0,     100, 0, 1, 0, 0, 1, 1, 100,       240,         0, 1, 1, 0, 1, 0, 1, 0, 1, 0, 1
   352,  1,    1250.4,    256.45,    926.35,   -297.68, 1.048835, 0,     100, 0, 1, 0, 0, 1, 1, 100,      2000,    666.67, 1, 1, 0, 1, 0, 1, 0, 1, 0, 1
   361,  1,     238.3,     27.11,    186.39,     -58.5,  1.05949, 0,     100, 0, 1, 0, 0, 1, 1, 100,       400,    133.33, 1, 1, 0, 1, 0, 1, 0, 1, 0, 1
   366,  1,     185.6,    -33.91,     61.97,   -120.27, 1.008853, 0,     100, 0, 1, 0, 0, 1, 1, 100,       196,     65.33, 1, 1, 0, 1, 0, 1, 0, 1, 0, 1
   372,  1,     -54.9,    -13.56,    282.95,     -84.3, 1.074991, 0,     100, 0, 1, 0, 0, 1, 1, 100,       100,     -73.2, 1, 1, 0, 1, 0, 1, 0, 1, 0, 1
   382,  1,     25.68,     11.15,      38.4,    -11.44, 1.060853, 0,     100, 0, 1, 0, 0, 1, 1, 100,        80,         0, 1, 1, 0, 1, 0, 1, 0, 1, 0, 1
   389,  1,        69,     17.57,     56.73,    -17.84, 1.017731, 0,     100, 0, 1, 0, 0, 1, 1, 100,       120,         0, 1, 1, 0, 1, 0, 1, 0, 1, 0, 1
   394,  1,    2404.4,    -96.56,   1224.26,   -490.17, 1.063147, 0,     100, 0, 1, 0, 0, 1, 1, 100,      2800,    933.33, 1, 1, 0, 1, 0, 1, 0, 1, 0, 1
   406,  1,        31,     10.74,     22.22,    -17.35, 1.012399, 0,     100, 0, 1, 0, 0, 1, 1, 100,     61.23,         0, 1, 1, 0, 1, 0, 1, 0, 1, 0, 1
   409,  1,       -62,     -7.35,     24.32,    -29.67, 1.032831, 0,     100, 0, 1, 0, 0, 1, 1, 100,       100,    -82.67, 1, 1, 0, 1, 0, 1, 0, 1, 0, 1
   411,  1,      35.9,      4.64,     17.66,     -7.27,  1.03248, 0,     100, 0, 1, 0, 0, 1, 1, 100,        40,         0, 1, 1, 0, 1, 0, 1, 0, 1, 0, 1
   413,  1,       231,     21.57,    124.12,    -49.84, 1.048421, 0,     100, 0, 1, 0, 0, 1, 1, 100,       280,         0, 1, 1, 0, 1, 0, 1, 0, 1, 0, 1
   423,  1,     -19.2,      0.02,      5.22,      -2.6, 1.030299, 0,     100, 0, 1, 0, 0, 1, 1, 100,       100,     -25.6, 1, 1, 0, 1, 0, 1, 0, 1, 0, 1
   424,  1,     636.3,    269.64,    304.38,   -125.48, 1.051241, 0,     100, 0, 1, 0, 0, 1, 1, 100,       700,    233.33, 1, 1, 0, 1, 0, 1, 0, 1, 0, 1
   433,  1,       436,    206.71,    217.18,    -89.22, 1.024885, 0,     100, 0, 1, 0, 0, 1, 1, 100,       500,    166.67, 1, 1, 0, 1, 0, 1, 0, 1, 0, 1
   434,  1,      -2.8,     -1.11,      2.75,     -3.25, 1.037999, 0,     100, 0, 1, 0, 0, 1, 1, 100,       100,     -3.73, 1, 1, 0, 1, 0, 1, 0, 1, 0, 1
   438,  1,        74,      9.04,      45.1,    -16.18, 1.038705, 0,     100, 0, 1, 0, 0, 1, 1, 100,       100,         0, 1, 1, 0, 1, 0, 1, 0, 1, 0, 1
   439,  1,     308.6,    -59.31,    175.16,    -69.21, 1.072491, 0,     100, 0, 1, 0, 0, 1, 1, 100,       400,         0, 1, 1, 0, 1, 0, 1, 0, 1, 0, 1
   440,  1,      83.1,     -1.51,     55.73,    -19.01, 1.028093, 0,     100, 0, 1, 0, 0, 1, 1, 100,       120,         0, 1, 1, 0, 1, 0, 1, 0, 1, 0, 1
   442,  1,    -40.35,     -0.32,      1.95,     -0.93, 1.011727, 0,     100, 0, 1, 0, 0, 1, 1, 100,       100,     -53.8, 1, 1, 0, 1, 0, 1, 0, 1, 0, 1
   447,  1,      37.7,      2.42,     16.84,     -8.04, 1.035215, 0,     100, 0, 1, 0, 0, 1, 1, 100,        40,         0, 1, 1, 0, 1, 0, 1, 0, 1, 0, 1
   452,  1,     -56.8,     16.67,     37.86,    -11.94, 1.013382, 0,     100, 0, 1, 0, 0, 1, 1, 100,       100,    -75.73, 1, 1, 0, 1, 0, 1, 0, 1, 0, 1
   453,  1,     260.1,     69.83,    257.23,     -74.4, 1.024712, 0,     100, 0, 1, 0, 0, 1, 1, 100,       540,         0, 1, 1, 0, 1, 0, 1, 0, 1, 0, 1
   456,  1,    -28.08,    -11.78,      44.8,    -39.81, 0.999847, 0,     100, 0, 1, 0, 0, 1, 1, 100,       100,    -37.44, 1, 1, 0, 1, 0, 1, 0, 1, 0, 1
   484,  1,     229.5,    -43.46,    132.41,    -50.85, 1.054091, 0,     100, 0, 1, 0, 0, 1, 1, 100,       300,         0, 1, 1, 0, 1, 0, 1, 0, 1, 0, 1
   489,  1,    -107.4,     -0.53,      6.28,     -4.82, 1.008032, 0,     100, 0, 1, 0, 0, 1, 1, 100,       100,    -143.2, 1, 1, 0, 1, 0, 1, 0, 1, 0, 1
   491,  1,     105.4,     83.32,     94.56,     -28.1, 1.033193, 0,     100, 0, 1, 0, 0, 1, 1, 100,       200,         0, 1, 1, 0, 1, 0, 1, 0, 1, 0, 1
   505,  1,     110.6,    -14.73,     37.34,    -58.33, 1.022173, 0,     100, 0, 1, 0, 0, 1, 1, 100,    116.03,         0, 1, 1, 0, 1, 0, 1, 0, 1, 0, 1
   511,  1,     101.4,    -14.26,     94.38,    -28.04, 1.081589, 0,     100, 0, 1, 0, 0, 1, 1, 100,       200,         0, 1, 1, 0, 1, 0, 1, 0, 1, 0, 1
   515,  1,    324.82,     28.39,      72.5,    -27.24, 1.045162, 0,     100, 0, 1, 0, 0, 1, 1, 100,       700,       200, 1, 1, 0, 1, 0, 1, 0, 1, 0, 1
   516,  1,     539.4,    184.01,    261.79,   -106.67,  1.07129, 0,     100, 0, 1, 0, 0, 1, 1, 100,       600,       200, 1, 1, 0, 1, 0, 1, 0, 1, 0, 1
   518,  1,    -410.3,      1.69,     85.63,    -37.21, 1.067615, 0,     100, 0, 1, 0, 0, 1, 1, 100,       100,   -547.07, 1, 1, 0, 1, 0, 1, 0, 1, 0, 1
   524,  1,        69,    -13.09,     30.15,    -43.07, 1.046979, 0,     100, 0, 1, 0, 0, 1, 1, 100,     72.45,         0, 1, 1, 0, 1, 0, 1, 0, 1, 0, 1
   541,  1,     118.2,       -15,      7.81,    -27.19,  1.03819, 0,     100, 0, 1, 0, 0, 1, 1, 100,    124.19,         0, 1, 1, 0, 1, 0, 1, 0, 1, 0, 1
   564,  1,    -51.67,     -3.19,     18.47,    -19.35,  1.06702, 0,     100, 0, 1, 0, 0, 1, 1, 100,       100,    -68.89, 1, 1, 0, 1, 0, 1, 0, 1, 0, 1
   578,  1,    -110.3,      6.59,     25.88,    -11.01, 1.042146, 0,     100, 0, 1, 0, 0, 1, 1, 100,       100,   -147.07, 1, 1, 0, 1, 0, 1, 0, 1, 0, 1
   583,  1,      -270,      4.89,     17.88,     -7.03, 1.048595, 0,     100, 0, 1, 0, 0, 1, 1, 100,       100,      -360, 1, 1, 0, 1, 0, 1, 0, 1, 0, 1
   587,  1,       246,      1.47,    185.56,    -59.39, 1.040079, 0,     100, 0, 1, 0, 0, 1, 1, 100,       400,    133.33, 1, 1, 0, 1, 0, 1, 0, 1, 0, 1
   590,  1,     100.7,    135.79,    380.31,   -110.08, 1.065004, 0,     100, 0, 1, 0, 0, 1, 1, 100,       300,     67.13, 1, 1, 0, 1, 0, 1, 0, 1, 0, 1
   615,  1,      38.2,      2.13,     17.09,     -7.79, 1.068592, 0,     100, 0, 1, 0, 0, 1, 1, 100,        40,         0, 1, 1, 0, 1, 0, 1, 0, 1, 0, 1
   616,  1,     379.2,     31.85,     217.9,    -81.16,  1.04484, 0,     100, 0, 1, 0, 0, 1, 1, 100,       480,       160, 1, 1, 0, 1, 0, 1, 0, 1, 0, 1
   618,  1,     670.3,    -26.77,    351.18,   -139.11, 1.022784, 0,     100, 0, 1, 0, 0, 1, 1, 100,       800,    266.67, 1, 1, 0, 1, 0, 1, 0, 1, 0, 1
   628,  1,     152.4,     41.23,     78.79,    -31.69, 0.982057, 0,     100, 0, 1, 0, 0, 1, 1, 100,       180,         0, 1, 1, 0, 1, 0, 1, 0, 1, 0, 1
   636,  1,    101.89,      2.48,     52.99,    -21.87,  1.04241, 0,     100, 0, 1, 0, 0, 1, 1, 100,       120,         0, 1, 1, 0, 1, 0, 1, 0, 1, 0, 1
   637,  1,      21.3,     -0.33,      11.2,     -8.44, 1.031148, 0,     100, 0, 1, 0, 0, 1, 1, 100,     22.32,         0, 1, 1, 0, 1, 0, 1, 0, 1, 0, 1
   639,  1,     -46.2,    106.37,    135.52,     -38.9, 1.033532, 0,     100, 0, 1, 0, 0, 1, 1, 100,       100,     -61.6, 1, 1, 0, 1, 0, 1, 0, 1, 0, 1
   642,  1,     63.33,    -55.21,     90.13,    -93.03, 1.031368, 0,     100, 0, 1, 0, 0, 1, 1, 100,    276.09,         0, 1, 1, 0, 1, 0, 1, 0, 1, 0, 1
   648,  1,      47.2,      2.22,     37.95,    -11.87,  1.02749, 0,     100, 0, 1, 0, 0, 1, 1, 100,        80,         0, 1, 1, 0, 1, 0, 1, 0, 1, 0, 1
   672,  1,        67,     -0.69,     71.32,    -62.92,  1.02121, 0,     100, 0, 1, 0, 0, 1, 1, 100,    205.81,         0, 1, 1, 0, 1, 0, 1, 0, 1, 0, 1
   682,  1,      37.4,      8.11,     38.77,    -11.06, 1.060787, 0,     100, 0, 1, 0, 0, 1, 1, 100,        80,         0, 1, 1, 0, 1, 0, 1, 0, 1, 0, 1
   686,  1,    -21.65,     -8.24,     34.75,    -34.26, 1.013903, 0,     100, 0, 1, 0, 0, 1, 1, 100,       100,    -28.86, 1, 1, 0, 1, 0, 1, 0, 1, 0, 1
   692,  1,     274.8,     -4.69,    182.17,    -62.79, 1.059006, 0,     100, 0, 1, 0, 0, 1, 1, 100,       400,    133.33, 1, 1, 0, 1, 0, 1, 0, 1, 0, 1
   697,  1,     634.8,     27.98,     357.4,   -132.75, 1.031719, 0,     100, 0, 1, 0, 0, 1, 1, 100,       800,    266.67, 1, 1, 0, 1, 0, 1, 0, 1, 0, 1
   698,  1,     274.8,      3.65,    129.94,    -53.91, 0.999662, 0,     100, 0, 1, 0, 0, 1, 1, 100,       300,       100, 1, 1, 0, 1, 0, 1, 0, 1, 0, 1
   709,  1,        16,     -8.56,     22.23,    -20.83, 1.068875, 0,     100, 0, 1, 0, 0, 1, 1, 100,      65.3,         0, 1, 1, 0, 1, 0, 1, 0, 1, 0, 1
   711,  1,      27.8,     52.62,    377.01,   -113.63, 1.070147, 0,     100, 0, 1, 0, 0, 1, 1, 100,       100,     18.53, 1, 1, 0, 1, 0, 1, 0, 1, 0, 1
   713,  1,      99.3,      8.47,     53.98,    -20.79, 1.034791, 0,     100, 0, 1, 0, 0, 1, 1, 100,       120,         0, 1, 1, 0, 1, 0, 1, 0, 1, 0, 1
   714,  1,     453.4,     62.78,    376.36,   -114.08, 1.065017, 0,     100, 0, 1, 0, 0, 1, 1, 100,       800,    266.67, 1, 1, 0, 1, 0, 1, 0, 1, 0, 1
   715,  1,     323.1,    -67.84,     66.42,   -179.95, 1.021604, 0,     100, 0, 1, 0, 0, 1, 1, 100,       366,       122, 1, 1, 0, 1, 0, 1, 0, 1, 0, 1
   727,  1,    384.26,    -63.12,    379.61,   -111.09, 1.070143, 0,     100, 0, 1, 0, 0, 1, 1, 100,       800,    266.67, 1, 1, 0, 1, 0, 1, 0, 1, 0, 1
   728,  1,      70.8,    -18.79,     35.73,    -44.31, 1.030375, 0,     100, 0, 1, 0, 0, 1, 1, 100,     74.28,         0, 1, 1, 0, 1, 0, 1, 0, 1, 0, 1
   735,  1,       170,    -27.79,     89.94,   -122.06, 1.026593, 0,     100, 0, 1, 0, 0, 1, 1, 100,     178.5,         0, 1, 1, 0, 1, 0, 1, 0, 1, 0, 1
   738,  1,     90.79,      47.3,    107.86,    -95.15, 1.033376, 0,     100, 0, 1, 0, 0, 1, 1, 100,    311.39,      34.6, 1, 1, 0, 1, 0, 1, 0, 1, 0, 1
   739,  1,     465.7,    -58.22,    212.97,    -93.45, 1.035442, 0,     100, 0, 1, 0, 0, 1, 1, 100,       500,    166.67, 1, 1, 0, 1, 0, 1, 0, 1, 0, 1
   749,  1,    198.88,      4.93,    105.69,    -43.84, 1.053546, 0,     100, 0, 1, 0, 0, 1, 1, 100,       240,         0, 1, 1, 0, 1, 0, 1, 0, 1, 0, 1
   751,  1,      65.9,    -20.17,    136.94,    -47.24, 1.020488, 0,     100, 0, 1, 0, 0, 1, 1, 100,       300,         0, 1, 1, 0, 1, 0, 1, 0, 1, 0, 1
   757,  1,     116.7,     15.15,      51.3,    -23.41, 1.013994, 0,     100, 0, 1, 0, 0, 1, 1, 100,       120,         0, 1, 1, 0, 1, 0, 1, 0, 1, 0, 1
   763,  1,      37.3,      5.58,     27.88,     -8.97, 1.042899, 0,     100, 0, 1, 0, 0, 1, 1, 100,        60,         0, 1, 1, 0, 1, 0, 1, 0, 1, 0, 1
   764,  1,     138.3,      8.35,    174.17,    -71.12, 1.048246, 0,     100, 0, 1, 0, 0, 1, 1, 100,       400,    133.33, 1, 1, 0, 1, 0, 1, 0, 1, 0, 1
   765,  1,     170.7,     20.09,     76.76,    -33.84, 1.017174, 0,     100, 0, 1, 0, 0, 1, 1, 100,       180,         0, 1, 1, 0, 1, 0, 1, 0, 1, 0, 1
   774,  1,     134.4,     -8.34,     81.57,    -60.74, 1.038992, 0,     100, 0, 1, 0, 0, 1, 1, 100,    141.12,         0, 1, 1, 0, 1, 0, 1, 0, 1, 0, 1
   776,  1,    -111.4,      5.14,     18.16,     -6.73, 1.023986, 0,     100, 0, 1, 0, 0, 1, 1, 100,       100,   -148.53, 1, 1, 0, 1, 0, 1, 0, 1, 0, 1
   778,  1,      16.5,     -0.64,     12.37,     -9.36, 1.047837, 0,     100, 0, 1, 0, 0, 1, 1, 100,     33.58,         0, 1, 1, 0, 1, 0, 1, 0, 1, 0, 1
   779,  1,      37.8,     12.06,     17.34,     -7.58, 1.039304, 0,     100, 0, 1, 0, 0, 1, 1, 100,        45,         0, 1, 1, 0, 1, 0, 1, 0, 1, 0, 1
   780,  1,      50.8,     17.14,     37.43,    -12.32, 1.001975, 0,     100, 0, 1, 0, 0, 1, 1, 100,        80,         0, 1, 1, 0, 1, 0, 1, 0, 1, 0, 1
...